27
Properties=species:S:1:pos:R:3 pbc="F F F"
O       -0.82511378      -2.25450353      -0.70537568
H       -1.37428138      -1.83364300      -0.02244658
H       -1.06572198      -3.17724977      -0.72453878
O        1.66887812       0.61483332      -2.42455668
H        1.84662392       0.18060060      -1.58020968
H        0.98800802       0.06933328      -2.84543988
O       -2.12470668      -0.77910725       1.20442012
H       -1.66561168       0.03576704       0.94891642
H       -2.02389568      -0.82822625       2.15435505
O       -0.15187688       1.03698941       3.33061886
H       -0.32898568       1.81604977       3.85189009
H       -0.24933858       1.30704399       2.40268421
O       -0.46685078       2.28281804      -2.00577358
H        0.37894202       1.83254214      -2.18152048
H       -0.50704618       3.02532454      -2.60221858
O        1.44156982      -0.72242204       0.08367732
H        0.78196482      -1.37105660      -0.19596198
H        1.64682722      -0.90585212       1.01142692
O       -0.39035648       1.33021351       0.59234902
H       -0.52930118       1.81193658      -0.23209288
H        0.30467562       0.67950507       0.40843772
O        1.69523762      -0.99302355       2.83153916
H        1.07979162      -0.30451683       3.12897301
H        2.36236142      -1.06280975       3.51008082
O       -0.82472468      -0.54397492      -3.03542228
H       -1.08507198       0.32194777      -2.70455268
H       -0.91001748      -1.14947049      -2.28785138
